Version 4.1
SHEET 1 880 680
WIRE 112 80 0 80
WIRE 320 80 192 80
WIRE 320 144 320 80
WIRE 0 160 0 80
WIRE 0 272 0 240
WIRE 320 272 320 224
WIRE 320 272 0 272
WIRE 0 320 0 272
FLAG 0 320 0
SYMBOL res 208 64 R90
WINDOW 0 0 56 VBottom 2
WINDOW 3 32 56 VTop 2
SYMATTR InstName R1
SYMATTR Value 1k
SYMBOL res 304 128 R0
SYMATTR InstName R2
SYMATTR Value 1k
SYMBOL voltage 0 144 R0
WINDOW 0 38 16 Invisible 2
WINDOW 123 0 0 Left 0
WINDOW 39 0 0 Left 0
SYMATTR InstName V
SYMATTR Value 10
TEXT -32 344 Left 2 !.tran 100m
TEXT 24 168 Left 2 ;V